Circuit: * C:\users\joaoantoniocardoso\Desktop\tina-spice\INA211_PSPICE_AIO\ina211-test.asc

Instance "m:u1:u1:t1:ni2": Length shorter than recommended for a level 1 MOSFET.
Instance "m:u1:u1:t2:ni2": Length shorter than recommended for a level 1 MOSFET.
Instance "m:u1:u1:t3:6": Length shorter than recommended for a level 1 MOSFET.
Instance "m:u1:u1:t3:6": Width narrower than recommended for a level 1 MOSFET.
Instance "m:u1:u1:mp1:1": Length shorter than recommended for a level 1 MOSFET.
Instance "m:u1:u1:t4:1": Length shorter than recommended for a level 1 MOSFET.
Instance "m:u1:u1:t4:1": Width narrower than recommended for a level 1 MOSFET.
Instance "m:u1:u1:md1:6": Length shorter than recommended for a level 1 MOSFET.
Direct Newton iteration failed to find .op point.  (Use ".option noopiter" to skip.)
Starting Gmin stepping
Gmin = 10
Gmin = 1.07374
Gmin = 0.115292
Gmin = 0.0123794
vernier = 0.5
vernier = 0.666667
Gmin = 0.0043261
vernier = 0.888888
vernier = 0.444444
Gmin = 0.00109875
vernier = 0.222222
vernier = 0.111111
vernier = 0.0555555
vernier = 0.0277778
Gmin = 0.00101279
vernier = 0.0138889
vernier = 0.00694444
vernier = 0.00347222
Gmin = 0.000999717
vernier = 0.00173611
vernier = 0.000868055
vernier = 0.000434028
Gmin = 0
Gmin stepping succeeded in finding the operating point.


Date: Fri Jun 01 22:12:34 2018
Total elapsed time: 0.284 seconds.

tnom = 27
temp = 27
method = trap
totiter = 1746
traniter = 0
tranpoints = 0
accept = 0
rejected = 0
matrix size = 104
fillins = 56
solver = Alternate
Matrix Compiler1:     434 opcodes
Matrix Compiler2: 10.75 KB object code size  2.8/3.7/[1.9]

