Circuit: * C:\users\joaoantoniocardoso\Desktop\tina-spice\INA826_TINA_AIO\tina826-test.asc

u2:input1:vi3b: Missing value, assumed 0V @ DC
u2:input1:vi8b: Missing value, assumed 0V @ DC
u2:output:vi3b: Missing value, assumed 0V @ DC
u2:output:vi8b: Missing value, assumed 0V @ DC
u2:u1:vi3b: Missing value, assumed 0V @ DC
u2:u1:vi8b: Missing value, assumed 0V @ DC
u2:bias:vib1: Missing value, assumed 0V @ DC
Direct Newton iteration failed to find .op point.  (Use ".option noopiter" to skip.)
Starting Gmin stepping
Gmin = 10
Gmin = 1.07374
Gmin = 0.115292
Gmin = 0.0123794
Gmin = 0.00132923
Gmin = 0.000142725
Gmin = 1.5325e-005
Gmin = 1.6455e-006
Gmin = 1.76685e-007
Gmin = 1.89714e-008
Gmin = 2.03704e-009
Gmin = 2.18725e-010
Gmin = 2.34854e-011
Gmin = 2.52173e-012
Gmin = 2.70769e-013
Gmin = 0
Gmin stepping succeeded in finding the operating point.


Date: Tue Jun 05 21:36:28 2018
Total elapsed time: 0.531 seconds.

tnom = 27
temp = 27
method = modified trap
totiter = 3877
traniter = 3404
tranpoints = 1425
accept = 1308
rejected = 117
matrix size = 227
fillins = 221
solver = Alternate
Thread vector: 47.7/20.1[4] 19.9/8.6[4] 6.0/4.8[4] 5.6/4.3[4]  2592/500
Matrix Compiler1: 30.86 KB object code size  14.4/11.2/[5.4]
Matrix Compiler2: 26.60 KB object code size  8.7/8.7/[6.2]

